// Generated for: spectre
// Generated on: Jan  8 14:06:37 2023
// Design library name: PLL
// Design cell name: pll_mix
// Design view name: config
simulator lang=spectre
global 0
